Test_Network/condensed/network_10/Feeder_4/Lines.txt
New Line.LINE84 Bus1=83 Bus2=85 phases=3 Linecode=3c_300_ASN Length=1.658 Units=m
New Line.LINE168 Bus1=165 Bus2=169 phases=3 Linecode=25_SAC_XC Length=5.6614 Units=m
New Line.LINE184 Bus1=179 Bus2=185 phases=3 Linecode=25_SAC_XC Length=21.259 Units=m
New Line.LINE263 Bus1=256 Bus2=264 phases=3 Linecode=4c_.5 Length=1.7656 Units=m
New Line.LINE272 Bus1=264 Bus2=273 phases=3 Linecode=25_SAC_XC Length=9.6855 Units=m
New Line.LINE288 Bus1=280 Bus2=289 phases=3 Linecode=25_SAC_XC Length=7.0918 Units=m
New Line.LINE494 Bus1=490 Bus2=495 phases=3 Linecode=25_SAC_XC Length=6.3095 Units=m
New Line.LINE495 Bus1=490 Bus2=496 phases=3 Linecode=25_SAC_XC Length=7.2825 Units=m
New Line.LINE496 Bus1=490 Bus2=497 phases=3 Linecode=25_SAC_XC Length=7.2825 Units=m
New Line.LINECmpd_0 Bus1=44 Bus2=83 phases=3 Linecode=3c_300_ASN Length=60.759893 Units=m
New Line.LINECmpd_1 Bus1=166 Bus2=256 phases=3 Linecode=4c_.5 Length=33.41389 Units=m
New Line.LINECmpd_2 Bus1=223 Bus2=403 phases=3 Linecode=4c_.25 Length=74.594511 Units=m
New Line.LINECmpd_3 Bus1=83 Bus2=166 phases=3 Linecode=3c_300_ASN Length=7.669728 Units=m
New Line.LINECmpd_4 Bus1=85 Bus2=165 phases=3 Linecode=3c_300_ASN Length=49.43965 Units=m
New Line.LINECmpd_5 Bus1=33 Bus2=44 phases=3 Linecode=4c_.5_SAC Length=7.23063 Units=m
New Line.LINECmpd_6 Bus1=165 Bus2=223 phases=3 Linecode=3c_300_ASN Length=14.885431 Units=m
New Line.LINECmpd_7 Bus1=85 Bus2=179 phases=3 Linecode=3c_95_SAC_XC Length=31.123422 Units=m
New Line.LINECmpd_8 Bus1=403 Bus2=462 phases=3 Linecode=4c_.3 Length=6.080458 Units=m
New Line.LINECmpd_9 Bus1=1 Bus2=33 phases=3 Linecode=3c_300_SAC_XC Length=29.099167 Units=m
New Line.LINECmpd_10 Bus1=462 Bus2=490 phases=3 Linecode=4c_.06 Length=0.718127 Units=m
New Line.LINECmpd_11 Bus1=256 Bus2=280 phases=3 Linecode=4c_.5 Length=20.9681 Units=m
